*SPEF "IEEE 1481-1998"
*DESIGN "FIR"
*DATE "Thu Nov 19 18:38:09 2020"
*VENDOR "Cadence Design Systems, Inc."
*PROGRAM "Innovus"
*VERSION "17.11-s080_1"
*DESIGN_FLOW "COUPLING C" "PIN_CAP NONE" "NAME_SCOPE LOCAL"
*DIVIDER /
*DELIMITER :
*BUS_DELIMITER []
*T_UNIT 1 NS
*C_UNIT 1 PF
*R_UNIT 1 OHM
*L_UNIT 1 HENRY

// MMMC spef file for corner 'my_rc'

*NAME_MAP

*1 FE_OFN1_RST_n
*2 FE_OFN0_RST_n
*3 DIN[8]
*4 DIN[7]
*5 DIN[6]
*6 DIN[5]
*7 DIN[4]
*8 DIN[3]
*9 DIN[2]
*10 DIN[1]
*11 DIN[0]
*12 b0[8]
*13 b0[7]
*14 b0[6]
*15 b0[5]
*16 b0[4]
*17 b0[3]
*18 b0[2]
*19 b0[1]
*20 b0[0]
*21 b1[8]
*22 b1[7]
*23 b1[6]
*24 b1[5]
*25 b1[4]
*26 b1[3]
*27 b1[2]
*28 b1[1]
*29 b1[0]
*30 b2[8]
*31 b2[7]
*32 b2[6]
*33 b2[5]
*34 b2[4]
*35 b2[3]
*36 b2[2]
*37 b2[1]
*38 b2[0]
*39 b3[8]
*40 b3[7]
*41 b3[6]
*42 b3[5]
*43 b3[4]
*44 b3[3]
*45 b3[2]
*46 b3[1]
*47 b3[0]
*48 b4[8]
*49 b4[7]
*50 b4[6]
*51 b4[5]
*52 b4[4]
*53 b4[3]
*54 b4[2]
*55 b4[1]
*56 b4[0]
*57 b5[8]
*58 b5[7]
*59 b5[6]
*60 b5[5]
*61 b5[4]
*62 b5[3]
*63 b5[2]
*64 b5[1]
*65 b5[0]
*66 b6[8]
*67 b6[7]
*68 b6[6]
*69 b6[5]
*70 b6[4]
*71 b6[3]
*72 b6[2]
*73 b6[1]
*74 b6[0]
*75 b7[8]
*76 b7[7]
*77 b7[6]
*78 b7[5]
*79 b7[4]
*80 b7[3]
*81 b7[2]
*82 b7[1]
*83 b7[0]
*84 b8[8]
*85 b8[7]
*86 b8[6]
*87 b8[5]
*88 b8[4]
*89 b8[3]
*90 b8[2]
*91 b8[1]
*92 b8[0]
*93 b9[8]
*94 b9[7]
*95 b9[6]
*96 b9[5]
*97 b9[4]
*98 b9[3]
*99 b9[2]
*100 b9[1]
*101 b9[0]
*102 b10[8]
*103 b10[7]
*104 b10[6]
*105 b10[5]
*106 b10[4]
*107 b10[3]
*108 b10[2]
*109 b10[1]
*110 b10[0]
*111 DOUT[8]
*112 DOUT[7]
*113 DOUT[6]
*114 DOUT[5]
*115 DOUT[4]
*116 DOUT[3]
*117 DOUT[2]
*118 DOUT[1]
*119 DOUT[0]
*120 VIN
*121 RST_n
*122 CLK
*123 VOUT
*124 reg_pipe_10__8_
*125 reg_pipe_10__7_
*126 reg_pipe_10__6_
*127 reg_pipe_10__5_
*128 reg_pipe_10__4_
*129 reg_pipe_10__3_
*130 reg_pipe_10__2_
*131 reg_pipe_10__1_
*132 reg_pipe_10__0_
*133 reg_pipe_9__8_
*134 reg_pipe_9__7_
*135 reg_pipe_9__6_
*136 reg_pipe_9__5_
*137 reg_pipe_9__4_
*138 reg_pipe_9__3_
*139 reg_pipe_9__2_
*140 reg_pipe_9__1_
*141 reg_pipe_9__0_
*142 reg_pipe_8__8_
*143 reg_pipe_8__7_
*144 reg_pipe_8__6_
*145 reg_pipe_8__5_
*146 reg_pipe_8__4_
*147 reg_pipe_8__3_
*148 reg_pipe_8__2_
*149 reg_pipe_8__1_
*150 reg_pipe_8__0_
*151 reg_pipe_7__8_
*152 reg_pipe_7__7_
*153 reg_pipe_7__6_
*154 reg_pipe_7__5_
*155 reg_pipe_7__4_
*156 reg_pipe_7__3_
*157 reg_pipe_7__2_
*158 reg_pipe_7__1_
*159 reg_pipe_7__0_
*160 reg_pipe_6__8_
*161 reg_pipe_6__7_
*162 reg_pipe_6__6_
*163 reg_pipe_6__5_
*164 reg_pipe_6__4_
*165 reg_pipe_6__3_
*166 reg_pipe_6__2_
*167 reg_pipe_6__1_
*168 reg_pipe_6__0_
*169 reg_pipe_5__8_
*170 reg_pipe_5__7_
*171 reg_pipe_5__6_
*172 reg_pipe_5__5_
*173 reg_pipe_5__4_
*174 reg_pipe_5__3_
*175 reg_pipe_5__2_
*176 reg_pipe_5__1_
*177 reg_pipe_5__0_
*178 reg_pipe_4__8_
*179 reg_pipe_4__7_
*180 reg_pipe_4__6_
*181 reg_pipe_4__5_
*182 reg_pipe_4__4_
*183 reg_pipe_4__3_
*184 reg_pipe_4__2_
*185 reg_pipe_4__1_
*186 reg_pipe_4__0_
*187 reg_pipe_3__8_
*188 reg_pipe_3__7_
*189 reg_pipe_3__6_
*190 reg_pipe_3__5_
*191 reg_pipe_3__4_
*192 reg_pipe_3__3_
*193 reg_pipe_3__2_
*194 reg_pipe_3__1_
*195 reg_pipe_3__0_
*196 reg_pipe_2__8_
*197 reg_pipe_2__7_
*198 reg_pipe_2__6_
*199 reg_pipe_2__5_
*200 reg_pipe_2__4_
*201 reg_pipe_2__3_
*202 reg_pipe_2__2_
*203 reg_pipe_2__1_
*204 reg_pipe_2__0_
*205 reg_pipe_1__8_
*206 reg_pipe_1__7_
*207 reg_pipe_1__6_
*208 reg_pipe_1__5_
*209 reg_pipe_1__4_
*210 reg_pipe_1__3_
*211 reg_pipe_1__2_
*212 reg_pipe_1__1_
*213 reg_pipe_1__0_
*214 reg_pipe_0__8_
*215 reg_pipe_0__7_
*216 reg_pipe_0__6_
*217 reg_pipe_0__5_
*218 reg_pipe_0__4_
*219 reg_pipe_0__3_
*220 reg_pipe_0__2_
*221 reg_pipe_0__1_
*222 reg_pipe_0__0_
*223 VIN_internal
*224 add_out_10__8_
*225 add_out_10__7_
*226 add_out_10__6_
*227 add_out_10__5_
*228 add_out_10__4_
*229 add_out_10__3_
*230 add_out_10__2_
*231 add_out_10__1_
*232 add_out_10__0_
*233 mul_out_9__9_
*234 mul_out_9__8_
*235 mul_out_9__16_
*236 mul_out_9__15_
*237 mul_out_9__14_
*238 mul_out_9__13_
*239 mul_out_9__12_
*240 mul_out_9__11_
*241 mul_out_9__10_
*242 mul_out_8__9_
*243 mul_out_8__8_
*244 mul_out_8__16_
*245 mul_out_8__15_
*246 mul_out_8__14_
*247 mul_out_8__13_
*248 mul_out_8__12_
*249 mul_out_8__11_
*250 mul_out_8__10_
*251 mul_out_7__9_
*252 mul_out_7__8_
*253 mul_out_7__16_
*254 mul_out_7__15_
*255 mul_out_7__14_
*256 mul_out_7__13_
*257 mul_out_7__12_
*258 mul_out_7__11_
*259 mul_out_7__10_
*260 mul_out_6__9_
*261 mul_out_6__8_
*262 mul_out_6__16_
*263 mul_out_6__15_
*264 mul_out_6__14_
*265 mul_out_6__13_
*266 mul_out_6__12_
*267 mul_out_6__11_
*268 mul_out_6__10_
*269 mul_out_5__9_
*270 mul_out_5__8_
*271 mul_out_5__16_
*272 mul_out_5__15_
*273 mul_out_5__14_
*274 mul_out_5__13_
*275 mul_out_5__12_
*276 mul_out_5__11_
*277 mul_out_5__10_
*278 mul_out_4__9_
*279 mul_out_4__8_
*280 mul_out_4__16_
*281 mul_out_4__15_
*282 mul_out_4__14_
*283 mul_out_4__13_
*284 mul_out_4__12_
*285 mul_out_4__11_
*286 mul_out_4__10_
*287 mul_out_3__9_
*288 mul_out_3__8_
*289 mul_out_3__16_
*290 mul_out_3__15_
*291 mul_out_3__14_
*292 mul_out_3__13_
*293 mul_out_3__12_
*294 mul_out_3__11_
*295 mul_out_3__10_
*296 mul_out_2__9_
*297 mul_out_2__8_
*298 mul_out_2__16_
*299 mul_out_2__15_
*300 mul_out_2__14_
*301 mul_out_2__13_
*302 mul_out_2__12_
*303 mul_out_2__11_
*304 mul_out_2__10_
*305 mul_out_1__9_
*306 mul_out_1__8_
*307 mul_out_1__16_
*308 mul_out_1__15_
*309 mul_out_1__14_
*310 mul_out_1__13_
*311 mul_out_1__12_
*312 mul_out_1__11_
*313 mul_out_1__10_
*314 mul_out_10__9_
*315 mul_out_10__8_
*316 mul_out_10__16_
*317 mul_out_10__15_
*318 mul_out_10__14_
*319 mul_out_10__13_
*320 mul_out_10__12_
*321 mul_out_10__11_
*322 mul_out_10__10_
*323 mul_out_0__9_
*324 mul_out_0__8_
*325 mul_out_0__16_
*326 mul_out_0__15_
*327 mul_out_0__14_
*328 mul_out_0__13_
*329 mul_out_0__12_
*330 mul_out_0__11_
*331 mul_out_0__10_
*332 add_out_9__8_
*333 add_out_9__7_
*334 add_out_9__6_
*335 add_out_9__5_
*336 add_out_9__4_
*337 add_out_9__3_
*338 add_out_9__2_
*339 add_out_9__1_
*340 add_out_9__0_
*341 add_out_8__8_
*342 add_out_8__7_
*343 add_out_8__6_
*344 add_out_8__5_
*345 add_out_8__4_
*346 add_out_8__3_
*347 add_out_8__2_
*348 add_out_8__1_
*349 add_out_8__0_
*350 add_out_7__8_
*351 add_out_7__7_
*352 add_out_7__6_
*353 add_out_7__5_
*354 add_out_7__4_
*355 add_out_7__3_
*356 add_out_7__2_
*357 add_out_7__1_
*358 add_out_7__0_
*359 add_out_6__8_
*360 add_out_6__7_
*361 add_out_6__6_
*362 add_out_6__5_
*363 add_out_6__4_
*364 add_out_6__3_
*365 add_out_6__2_
*366 add_out_6__1_
*367 add_out_6__0_
*368 add_out_5__8_
*369 add_out_5__7_
*370 add_out_5__6_
*371 add_out_5__5_
*372 add_out_5__4_
*373 add_out_5__3_
*374 add_out_5__2_
*375 add_out_5__1_
*376 add_out_5__0_
*377 add_out_4__8_
*378 add_out_4__7_
*379 add_out_4__6_
*380 add_out_4__5_
*381 add_out_4__4_
*382 add_out_4__3_
*383 add_out_4__2_
*384 add_out_4__1_
*385 add_out_4__0_
*386 add_out_3__8_
*387 add_out_3__7_
*388 add_out_3__6_
*389 add_out_3__5_
*390 add_out_3__4_
*391 add_out_3__3_
*392 add_out_3__2_
*393 add_out_3__1_
*394 add_out_3__0_
*395 add_out_2__8_
*396 add_out_2__7_
*397 add_out_2__6_
*398 add_out_2__5_
*399 add_out_2__4_
*400 add_out_2__3_
*401 add_out_2__2_
*402 add_out_2__1_
*403 add_out_2__0_
*404 add_out_1__8_
*405 add_out_1__7_
*406 add_out_1__6_
*407 add_out_1__5_
*408 add_out_1__4_
*409 add_out_1__3_
*410 add_out_1__2_
*411 add_out_1__1_
*412 add_out_1__0_
*413 reg_0_n27
*414 reg_0_n26
*415 reg_0_n25
*416 reg_0_n24
*417 reg_0_n23
*418 reg_0_n22
*419 reg_0_n21
*420 reg_0_n20
*421 reg_0_n19
*422 reg_0_n18
*423 reg_0_n17
*424 reg_0_n16
*425 reg_0_n15
*426 reg_0_n14
*427 reg_0_n13
*428 reg_0_n12
*429 reg_0_n11
*430 reg_0_n10
*431 reg_0_n9
*432 reg_0_n8
*433 reg_0_n7
*434 reg_0_n6
*435 reg_0_n5
*436 reg_0_n4
*437 reg_0_n3
*438 reg_0_n2
*439 reg_0_n1
*440 reg_i_1_n54
*441 reg_i_1_n53
*442 reg_i_1_n50
*443 reg_i_1_n47
*444 reg_i_1_n45
*445 reg_i_1_n44
*446 reg_i_1_n43
*447 reg_i_1_n42
*448 reg_i_1_n41
*449 reg_i_1_n40
*450 reg_i_1_n39
*451 reg_i_1_n38
*452 reg_i_1_n37
*453 reg_i_1_n36
*454 reg_i_1_n35
*455 reg_i_1_n32
*456 reg_i_1_n29
*457 reg_i_2_n53
*458 reg_i_2_n51
*459 reg_i_2_n50
*460 reg_i_2_n47
*461 reg_i_2_n45
*462 reg_i_2_n44
*463 reg_i_2_n43
*464 reg_i_2_n42
*465 reg_i_2_n41
*466 reg_i_2_n40
*467 reg_i_2_n39
*468 reg_i_2_n38
*469 reg_i_2_n37
*470 reg_i_2_n35
*471 reg_i_2_n33
*472 reg_i_2_n32
*473 reg_i_2_n29
*474 reg_i_3_n53
*475 reg_i_3_n52
*476 reg_i_3_n50
*477 reg_i_3_n48
*478 reg_i_3_n47
*479 reg_i_3_n46
*480 reg_i_3_n45
*481 reg_i_3_n44
*482 reg_i_3_n43
*483 reg_i_3_n42
*484 reg_i_3_n41
*485 reg_i_3_n40
*486 reg_i_3_n39
*487 reg_i_3_n38
*488 reg_i_3_n37
*489 reg_i_3_n35
*490 reg_i_3_n34
*491 reg_i_3_n32
*492 reg_i_3_n30
*493 reg_i_3_n29
*494 reg_i_3_n28
*495 reg_i_4_n52
*496 reg_i_4_n50
*497 reg_i_4_n49
*498 reg_i_4_n48
*499 reg_i_4_n46
*500 reg_i_4_n45
*501 reg_i_4_n44
*502 reg_i_4_n43
*503 reg_i_4_n42
*504 reg_i_4_n41
*505 reg_i_4_n40
*506 reg_i_4_n39
*507 reg_i_4_n38
*508 reg_i_4_n37
*509 reg_i_4_n34
*510 reg_i_4_n32
*511 reg_i_4_n31
*512 reg_i_4_n30
*513 reg_i_4_n28
*514 reg_i_5_n51
*515 reg_i_5_n47
*516 reg_i_5_n46
*517 reg_i_5_n45
*518 reg_i_5_n44
*519 reg_i_5_n43
*520 reg_i_5_n42
*521 reg_i_5_n41
*522 reg_i_5_n40
*523 reg_i_5_n39
*524 reg_i_5_n38
*525 reg_i_5_n37
*526 reg_i_5_n33
*527 reg_i_5_n29
*528 reg_i_5_n28
*529 reg_i_6_n50
*530 reg_i_6_n45
*531 reg_i_6_n44
*532 reg_i_6_n43
*533 reg_i_6_n42
*534 reg_i_6_n41
*535 reg_i_6_n40
*536 reg_i_6_n39
*537 reg_i_6_n38
*538 reg_i_6_n37
*539 reg_i_6_n32
*540 reg_i_7_n52
*541 reg_i_7_n51
*542 reg_i_7_n50
*543 reg_i_7_n49
*544 reg_i_7_n48
*545 reg_i_7_n47
*546 reg_i_7_n46
*547 reg_i_7_n45
*548 reg_i_7_n44
*549 reg_i_7_n43
*550 reg_i_7_n42
*551 reg_i_7_n41
*552 reg_i_7_n40
*553 reg_i_7_n39
*554 reg_i_7_n38
*555 reg_i_7_n37
*556 reg_i_7_n36
*557 reg_i_7_n35
*558 reg_i_7_n34
*559 reg_i_7_n33
*560 reg_i_7_n32
*561 reg_i_7_n31
*562 reg_i_7_n30
*563 reg_i_7_n29
*564 reg_i_7_n28
*565 reg_i_8_n54
*566 reg_i_8_n52
*567 reg_i_8_n49
*568 reg_i_8_n45
*569 reg_i_8_n44
*570 reg_i_8_n43
*571 reg_i_8_n42
*572 reg_i_8_n41
*573 reg_i_8_n40
*574 reg_i_8_n39
*575 reg_i_8_n38
*576 reg_i_8_n37
*577 reg_i_8_n36
*578 reg_i_8_n34
*579 reg_i_8_n31
*580 reg_i_9_n54
*581 reg_i_9_n45
*582 reg_i_9_n44
*583 reg_i_9_n43
*584 reg_i_9_n42
*585 reg_i_9_n41
*586 reg_i_9_n40
*587 reg_i_9_n39
*588 reg_i_9_n38
*589 reg_i_9_n37
*590 reg_i_9_n36
*591 reg_i_10_n54
*592 reg_i_10_n52
*593 reg_i_10_n49
*594 reg_i_10_n48
*595 reg_i_10_n45
*596 reg_i_10_n44
*597 reg_i_10_n43
*598 reg_i_10_n42
*599 reg_i_10_n41
*600 reg_i_10_n40
*601 reg_i_10_n39
*602 reg_i_10_n38
*603 reg_i_10_n37
*604 reg_i_10_n36
*605 reg_i_10_n34
*606 reg_i_10_n31
*607 reg_i_10_n30
*608 reg_11_n54
*609 reg_11_n53
*610 reg_11_n52
*611 reg_11_n51
*612 reg_11_n50
*613 reg_11_n49
*614 reg_11_n48
*615 reg_11_n47
*616 reg_11_n46
*617 reg_11_n45
*618 reg_11_n44
*619 reg_11_n43
*620 reg_11_n42
*621 reg_11_n41
*622 reg_11_n40
*623 reg_11_n39
*624 reg_11_n38
*625 reg_11_n37
*626 reg_11_n36
*627 reg_11_n35
*628 reg_11_n34
*629 reg_11_n33
*630 reg_11_n32
*631 reg_11_n31
*632 reg_11_n30
*633 reg_11_n29
*634 reg_11_n28
*635 mult_70_n362
*636 mult_70_n361
*637 mult_70_n360
*638 mult_70_n359
*639 mult_70_n358
*640 mult_70_n357
*641 mult_70_n356
*642 mult_70_n355
*643 mult_70_n354
*644 mult_70_n353
*645 mult_70_n352
*646 mult_70_n351
*647 mult_70_n350
*648 mult_70_n349
*649 mult_70_n348
*650 mult_70_n347
*651 mult_70_n346
*652 mult_70_n345
*653 mult_70_n344
*654 mult_70_n343
*655 mult_70_n342
*656 mult_70_n341
*657 mult_70_n340
*658 mult_70_n339
*659 mult_70_n338
*660 mult_70_n337
*661 mult_70_n336
*662 mult_70_n335
*663 mult_70_n334
*664 mult_70_n333
*665 mult_70_n332
*666 mult_70_n331
*667 mult_70_n330
*668 mult_70_n329
*669 mult_70_n328
*670 mult_70_n327
*671 mult_70_n326
*672 mult_70_n325
*673 mult_70_n324
*674 mult_70_n323
*675 mult_70_n322
*676 mult_70_n321
*677 mult_70_n320
*678 mult_70_n319
*679 mult_70_n318
*680 mult_70_n317
*681 mult_70_n316
*682 mult_70_n315
*683 mult_70_n314
*684 mult_70_n313
*685 mult_70_n312
*686 mult_70_n311
*687 mult_70_n310
*688 mult_70_n309
*689 mult_70_n308
*690 mult_70_n307
*691 mult_70_n306
*692 mult_70_n305
*693 mult_70_n304
*694 mult_70_n303
*695 mult_70_n302
*696 mult_70_n301
*697 mult_70_n300
*698 mult_70_n299
*699 mult_70_n298
*700 mult_70_n297
*701 mult_70_n296
*702 mult_70_n295
*703 mult_70_n294
*704 mult_70_n293
*705 mult_70_n292
*706 mult_70_n291
*707 mult_70_n290
*708 mult_70_n289
*709 mult_70_n288
*710 mult_70_n287
*711 mult_70_n286
*712 mult_70_n285
*713 mult_70_n284
*714 mult_70_n283
*715 mult_70_n282
*716 mult_70_n281
*717 mult_70_n280
*718 mult_70_n279
*719 mult_70_n278
*720 mult_70_n277
*721 mult_70_n276
*722 mult_70_n275
*723 mult_70_n274
*724 mult_70_n273
*725 mult_70_n272
*726 mult_70_n271
*727 mult_70_n270
*728 mult_70_n269
*729 mult_70_n268
*730 mult_70_n140
*731 mult_70_n139
*732 mult_70_n138
*733 mult_70_n137
*734 mult_70_n136
*735 mult_70_n135
*736 mult_70_n132
*737 mult_70_n131
*738 mult_70_n130
*739 mult_70_n129
*740 mult_70_n128
*741 mult_70_n127
*742 mult_70_n126
*743 mult_70_n124
*744 mult_70_n123
*745 mult_70_n122
*746 mult_70_n121
*747 mult_70_n120
*748 mult_70_n119
*749 mult_70_n118
*750 mult_70_n117
*751 mult_70_n115
*752 mult_70_n114
*753 mult_70_n113
*754 mult_70_n111
*755 mult_70_n110
*756 mult_70_n109
*757 mult_70_n108
*758 mult_70_n106
*759 mult_70_n104
*760 mult_70_n103
*761 mult_70_n102
*762 mult_70_n101
*763 mult_70_n100
*764 mult_70_n99
*765 mult_70_n95
*766 mult_70_n94
*767 mult_70_n93
*768 mult_70_n79
*769 mult_70_n78
*770 mult_70_n77
*771 mult_70_n76
*772 mult_70_n75
*773 mult_70_n74
*774 mult_70_n73
*775 mult_70_n72
*776 mult_70_n71
*777 mult_70_n70
*778 mult_70_n69
*779 mult_70_n68
*780 mult_70_n67
*781 mult_70_n66
*782 mult_70_n65
*783 mult_70_n64
*784 mult_70_n63
*785 mult_70_n62
*786 mult_70_n61
*787 mult_70_n60
*788 mult_70_n59
*789 mult_70_n58
*790 mult_70_n57
*791 mult_70_n56
*792 mult_70_n55
*793 mult_70_n54
*794 mult_70_n53
*795 mult_70_n52
*796 mult_70_n51
*797 mult_70_n50
*798 mult_70_n49
*799 mult_70_n48
*800 mult_70_n46
*801 mult_70_n45
*802 mult_70_n44
*803 mult_70_n43
*804 mult_70_n42
*805 mult_70_n41
*806 mult_70_n40
*807 mult_70_n39
*808 mult_70_n38
*809 mult_70_n37
*810 mult_70_n36
*811 mult_70_n35
*812 mult_70_n34
*813 mult_70_n32
*814 mult_70_n31
*815 mult_70_n30
*816 mult_70_n29
*817 mult_70_n28
*818 mult_70_n27
*819 mult_70_n26
*820 mult_70_n25
*821 mult_70_n24
*822 mult_70_n22
*823 mult_70_n21
*824 mult_70_n20
*825 mult_70_n19
*826 mult_70_n18
*827 mult_70_n9
*828 mult_70_n8
*829 mult_70_n7
*830 mult_70_n6
*831 mult_70_n5
*832 mult_70_n4
*833 mult_70_n3
*834 mult_70_n2
*835 mult_75_n362
*836 mult_75_n361
*837 mult_75_n360
*838 mult_75_n359
*839 mult_75_n358
*840 mult_75_n357
*841 mult_75_n356
*842 mult_75_n355
*843 mult_75_n354
*844 mult_75_n353
*845 mult_75_n352
*846 mult_75_n351
*847 mult_75_n350
*848 mult_75_n349
*849 mult_75_n348
*850 mult_75_n347
*851 mult_75_n346
*852 mult_75_n345
*853 mult_75_n344
*854 mult_75_n343
*855 mult_75_n342
*856 mult_75_n341
*857 mult_75_n340
*858 mult_75_n339
*859 mult_75_n338
*860 mult_75_n337
*861 mult_75_n336
*862 mult_75_n335
*863 mult_75_n334
*864 mult_75_n333
*865 mult_75_n332
*866 mult_75_n331
*867 mult_75_n330
*868 mult_75_n329
*869 mult_75_n328
*870 mult_75_n327
*871 mult_75_n326
*872 mult_75_n325
*873 mult_75_n324
*874 mult_75_n323
*875 mult_75_n322
*876 mult_75_n321
*877 mult_75_n320
*878 mult_75_n319
*879 mult_75_n318
*880 mult_75_n317
*881 mult_75_n316
*882 mult_75_n315
*883 mult_75_n314
*884 mult_75_n313
*885 mult_75_n312
*886 mult_75_n311
*887 mult_75_n310
*888 mult_75_n309
*889 mult_75_n308
*890 mult_75_n307
*891 mult_75_n306
*892 mult_75_n305
*893 mult_75_n304
*894 mult_75_n303
*895 mult_75_n302
*896 mult_75_n301
*897 mult_75_n300
*898 mult_75_n299
*899 mult_75_n298
*900 mult_75_n297
*901 mult_75_n296
*902 mult_75_n295
*903 mult_75_n294
*904 mult_75_n293
*905 mult_75_n292
*906 mult_75_n291
*907 mult_75_n290
*908 mult_75_n289
*909 mult_75_n288
*910 mult_75_n287
*911 mult_75_n286
*912 mult_75_n285
*913 mult_75_n284
*914 mult_75_n283
*915 mult_75_n282
*916 mult_75_n281
*917 mult_75_n280
*918 mult_75_n279
*919 mult_75_n278
*920 mult_75_n277
*921 mult_75_n276
*922 mult_75_n275
*923 mult_75_n274
*924 mult_75_n273
*925 mult_75_n272
*926 mult_75_n271
*927 mult_75_n270
*928 mult_75_n269
*929 mult_75_n268
*930 mult_75_n140
*931 mult_75_n139
*932 mult_75_n138
*933 mult_75_n137
*934 mult_75_n136
*935 mult_75_n135
*936 mult_75_n132
*937 mult_75_n131
*938 mult_75_n130
*939 mult_75_n129
*940 mult_75_n128
*941 mult_75_n127
*942 mult_75_n126
*943 mult_75_n124
*944 mult_75_n123
*945 mult_75_n122
*946 mult_75_n121
*947 mult_75_n120
*948 mult_75_n119
*949 mult_75_n118
*950 mult_75_n117
*951 mult_75_n115
*952 mult_75_n114
*953 mult_75_n113
*954 mult_75_n111
*955 mult_75_n110
*956 mult_75_n109
*957 mult_75_n108
*958 mult_75_n106
*959 mult_75_n104
*960 mult_75_n103
*961 mult_75_n102
*962 mult_75_n101
*963 mult_75_n100
*964 mult_75_n99
*965 mult_75_n95
*966 mult_75_n94
*967 mult_75_n93
*968 mult_75_n79
*969 mult_75_n78
*970 mult_75_n77
*971 mult_75_n76
*972 mult_75_n75
*973 mult_75_n74
*974 mult_75_n73
*975 mult_75_n72
*976 mult_75_n71
*977 mult_75_n70
*978 mult_75_n69
*979 mult_75_n68
*980 mult_75_n67
*981 mult_75_n66
*982 mult_75_n65
*983 mult_75_n64
*984 mult_75_n63
*985 mult_75_n62
*986 mult_75_n61
*987 mult_75_n60
*988 mult_75_n59
*989 mult_75_n58
*990 mult_75_n57
*991 mult_75_n56
*992 mult_75_n55
*993 mult_75_n54
*994 mult_75_n53
*995 mult_75_n52
*996 mult_75_n51
*997 mult_75_n50
*998 mult_75_n49
*999 mult_75_n48
*1000 mult_75_n46
*1001 mult_75_n45
*1002 mult_75_n44
*1003 mult_75_n43
*1004 mult_75_n42
*1005 mult_75_n41
*1006 mult_75_n40
*1007 mult_75_n39
*1008 mult_75_n38
*1009 mult_75_n37
*1010 mult_75_n36
*1011 mult_75_n35
*1012 mult_75_n34
*1013 mult_75_n32
*1014 mult_75_n31
*1015 mult_75_n30
*1016 mult_75_n29
*1017 mult_75_n28
*1018 mult_75_n27
*1019 mult_75_n26
*1020 mult_75_n25
*1021 mult_75_n24
*1022 mult_75_n22
*1023 mult_75_n21
*1024 mult_75_n20
*1025 mult_75_n19
*1026 mult_75_n18
*1027 mult_75_n9
*1028 mult_75_n8
*1029 mult_75_n7
*1030 mult_75_n6
*1031 mult_75_n5
*1032 mult_75_n4
*1033 mult_75_n3
*1034 mult_75_n2
*1035 mult_75_G2_n362
*1036 mult_75_G2_n361
*1037 mult_75_G2_n360
*1038 mult_75_G2_n359
*1039 mult_75_G2_n358
*1040 mult_75_G2_n357
*1041 mult_75_G2_n356
*1042 mult_75_G2_n355
*1043 mult_75_G2_n354
*1044 mult_75_G2_n353
*1045 mult_75_G2_n352
*1046 mult_75_G2_n351
*1047 mult_75_G2_n350
*1048 mult_75_G2_n349
*1049 mult_75_G2_n348
*1050 mult_75_G2_n347
*1051 mult_75_G2_n346
*1052 mult_75_G2_n345
*1053 mult_75_G2_n344
*1054 mult_75_G2_n343
*1055 mult_75_G2_n342
*1056 mult_75_G2_n341
*1057 mult_75_G2_n340
*1058 mult_75_G2_n339
*1059 mult_75_G2_n338
*1060 mult_75_G2_n337
*1061 mult_75_G2_n336
*1062 mult_75_G2_n335
*1063 mult_75_G2_n334
*1064 mult_75_G2_n333
*1065 mult_75_G2_n332
*1066 mult_75_G2_n331
*1067 mult_75_G2_n330
*1068 mult_75_G2_n329
*1069 mult_75_G2_n328
*1070 mult_75_G2_n327
*1071 mult_75_G2_n326
*1072 mult_75_G2_n325
*1073 mult_75_G2_n324
*1074 mult_75_G2_n323
*1075 mult_75_G2_n322
*1076 mult_75_G2_n321
*1077 mult_75_G2_n320
*1078 mult_75_G2_n319
*1079 mult_75_G2_n318
*1080 mult_75_G2_n317
*1081 mult_75_G2_n316
*1082 mult_75_G2_n315
*1083 mult_75_G2_n314
*1084 mult_75_G2_n313
*1085 mult_75_G2_n312
*1086 mult_75_G2_n311
*1087 mult_75_G2_n310
*1088 mult_75_G2_n309
*1089 mult_75_G2_n308
*1090 mult_75_G2_n307
*1091 mult_75_G2_n306
*1092 mult_75_G2_n305
*1093 mult_75_G2_n304
*1094 mult_75_G2_n303
*1095 mult_75_G2_n302
*1096 mult_75_G2_n301
*1097 mult_75_G2_n300
*1098 mult_75_G2_n299
*1099 mult_75_G2_n298
*1100 mult_75_G2_n297
*1101 mult_75_G2_n296
*1102 mult_75_G2_n295
*1103 mult_75_G2_n294
*1104 mult_75_G2_n293
*1105 mult_75_G2_n292
*1106 mult_75_G2_n291
*1107 mult_75_G2_n290
*1108 mult_75_G2_n289
*1109 mult_75_G2_n288
*1110 mult_75_G2_n287
*1111 mult_75_G2_n286
*1112 mult_75_G2_n285
*1113 mult_75_G2_n284
*1114 mult_75_G2_n283
*1115 mult_75_G2_n282
*1116 mult_75_G2_n281
*1117 mult_75_G2_n280
*1118 mult_75_G2_n279
*1119 mult_75_G2_n278
*1120 mult_75_G2_n277
*1121 mult_75_G2_n276
*1122 mult_75_G2_n275
*1123 mult_75_G2_n274
*1124 mult_75_G2_n273
*1125 mult_75_G2_n272
*1126 mult_75_G2_n271
*1127 mult_75_G2_n270
*1128 mult_75_G2_n269
*1129 mult_75_G2_n268
*1130 mult_75_G2_n140
*1131 mult_75_G2_n139
*1132 mult_75_G2_n138
*1133 mult_75_G2_n137
*1134 mult_75_G2_n136
*1135 mult_75_G2_n135
*1136 mult_75_G2_n132
*1137 mult_75_G2_n131
*1138 mult_75_G2_n130
*1139 mult_75_G2_n129
*1140 mult_75_G2_n128
*1141 mult_75_G2_n127
*1142 mult_75_G2_n126
*1143 mult_75_G2_n124
*1144 mult_75_G2_n123
*1145 mult_75_G2_n122
*1146 mult_75_G2_n121
*1147 mult_75_G2_n120
*1148 mult_75_G2_n119
*1149 mult_75_G2_n118
*1150 mult_75_G2_n117
*1151 mult_75_G2_n115
*1152 mult_75_G2_n114
*1153 mult_75_G2_n113
*1154 mult_75_G2_n111
*1155 mult_75_G2_n110
*1156 mult_75_G2_n109
*1157 mult_75_G2_n108
*1158 mult_75_G2_n106
*1159 mult_75_G2_n104
*1160 mult_75_G2_n103
*1161 mult_75_G2_n102
*1162 mult_75_G2_n101
*1163 mult_75_G2_n100
*1164 mult_75_G2_n99
*1165 mult_75_G2_n95
*1166 mult_75_G2_n94
*1167 mult_75_G2_n93
*1168 mult_75_G2_n79
*1169 mult_75_G2_n78
*1170 mult_75_G2_n77
*1171 mult_75_G2_n76
*1172 mult_75_G2_n75
*1173 mult_75_G2_n74
*1174 mult_75_G2_n73
*1175 mult_75_G2_n72
*1176 mult_75_G2_n71
*1177 mult_75_G2_n70
*1178 mult_75_G2_n69
*1179 mult_75_G2_n68
*1180 mult_75_G2_n67
*1181 mult_75_G2_n66
*1182 mult_75_G2_n65
*1183 mult_75_G2_n64
*1184 mult_75_G2_n63
*1185 mult_75_G2_n62
*1186 mult_75_G2_n61
*1187 mult_75_G2_n60
*1188 mult_75_G2_n59
*1189 mult_75_G2_n58
*1190 mult_75_G2_n57
*1191 mult_75_G2_n56
*1192 mult_75_G2_n55
*1193 mult_75_G2_n54
*1194 mult_75_G2_n53
*1195 mult_75_G2_n52
*1196 mult_75_G2_n51
*1197 mult_75_G2_n50
*1198 mult_75_G2_n49
*1199 mult_75_G2_n48
*1200 mult_75_G2_n46
*1201 mult_75_G2_n45
*1202 mult_75_G2_n44
*1203 mult_75_G2_n43
*1204 mult_75_G2_n42
*1205 mult_75_G2_n41
*1206 mult_75_G2_n40
*1207 mult_75_G2_n39
*1208 mult_75_G2_n38
*1209 mult_75_G2_n37
*1210 mult_75_G2_n36
*1211 mult_75_G2_n35
*1212 mult_75_G2_n34
*1213 mult_75_G2_n32
*1214 mult_75_G2_n31
*1215 mult_75_G2_n30
*1216 mult_75_G2_n29
*1217 mult_75_G2_n28
*1218 mult_75_G2_n27
*1219 mult_75_G2_n26
*1220 mult_75_G2_n25
*1221 mult_75_G2_n24
*1222 mult_75_G2_n22
*1223 mult_75_G2_n21
*1224 mult_75_G2_n20
*1225 mult_75_G2_n19
*1226 mult_75_G2_n18
*1227 mult_75_G2_n9
*1228 mult_75_G2_n8
*1229 mult_75_G2_n7
*1230 mult_75_G2_n6
*1231 mult_75_G2_n5
*1232 mult_75_G2_n4
*1233 mult_75_G2_n3
*1234 mult_75_G2_n2
*1235 mult_75_G7_n362
*1236 mult_75_G7_n361
*1237 mult_75_G7_n360
*1238 mult_75_G7_n359
*1239 mult_75_G7_n358
*1240 mult_75_G7_n357
*1241 mult_75_G7_n356
*1242 mult_75_G7_n355
*1243 mult_75_G7_n354
*1244 mult_75_G7_n353
*1245 mult_75_G7_n352
*1246 mult_75_G7_n351
*1247 mult_75_G7_n350
*1248 mult_75_G7_n349
*1249 mult_75_G7_n348
*1250 mult_75_G7_n347
*1251 mult_75_G7_n346
*1252 mult_75_G7_n345
*1253 mult_75_G7_n344
*1254 mult_75_G7_n343
*1255 mult_75_G7_n342
*1256 mult_75_G7_n341
*1257 mult_75_G7_n340
*1258 mult_75_G7_n339
*1259 mult_75_G7_n338
*1260 mult_75_G7_n337
*1261 mult_75_G7_n336
*1262 mult_75_G7_n335
*1263 mult_75_G7_n334
*1264 mult_75_G7_n333
*1265 mult_75_G7_n332
*1266 mult_75_G7_n331
*1267 mult_75_G7_n330
*1268 mult_75_G7_n329
*1269 mult_75_G7_n328
*1270 mult_75_G7_n327
*1271 mult_75_G7_n326
*1272 mult_75_G7_n325
*1273 mult_75_G7_n324
*1274 mult_75_G7_n323
*1275 mult_75_G7_n322
*1276 mult_75_G7_n321
*1277 mult_75_G7_n320
*1278 mult_75_G7_n319
*1279 mult_75_G7_n318
*1280 mult_75_G7_n317
*1281 mult_75_G7_n316
*1282 mult_75_G7_n315
*1283 mult_75_G7_n314
*1284 mult_75_G7_n313
*1285 mult_75_G7_n312
*1286 mult_75_G7_n311
*1287 mult_75_G7_n310
*1288 mult_75_G7_n309
*1289 mult_75_G7_n308
*1290 mult_75_G7_n307
*1291 mult_75_G7_n306
*1292 mult_75_G7_n305
*1293 mult_75_G7_n304
*1294 mult_75_G7_n303
*1295 mult_75_G7_n302
*1296 mult_75_G7_n301
*1297 mult_75_G7_n300
*1298 mult_75_G7_n299
*1299 mult_75_G7_n298
*1300 mult_75_G7_n297
*1301 mult_75_G7_n296
*1302 mult_75_G7_n295
*1303 mult_75_G7_n294
*1304 mult_75_G7_n293
*1305 mult_75_G7_n292
*1306 mult_75_G7_n291
*1307 mult_75_G7_n290
*1308 mult_75_G7_n289
*1309 mult_75_G7_n288
*1310 mult_75_G7_n287
*1311 mult_75_G7_n286
*1312 mult_75_G7_n285
*1313 mult_75_G7_n284
*1314 mult_75_G7_n283
*1315 mult_75_G7_n282
*1316 mult_75_G7_n281
*1317 mult_75_G7_n280
*1318 mult_75_G7_n279
*1319 mult_75_G7_n278
*1320 mult_75_G7_n277
*1321 mult_75_G7_n276
*1322 mult_75_G7_n275
*1323 mult_75_G7_n274
*1324 mult_75_G7_n273
*1325 mult_75_G7_n272
*1326 mult_75_G7_n271
*1327 mult_75_G7_n270
*1328 mult_75_G7_n269
*1329 mult_75_G7_n268
*1330 mult_75_G7_n140
*1331 mult_75_G7_n139
*1332 mult_75_G7_n138
*1333 mult_75_G7_n137
*1334 mult_75_G7_n136
*1335 mult_75_G7_n135
*1336 mult_75_G7_n132
*1337 mult_75_G7_n131
*1338 mult_75_G7_n130
*1339 mult_75_G7_n129
*1340 mult_75_G7_n128
*1341 mult_75_G7_n127
*1342 mult_75_G7_n126
*1343 mult_75_G7_n124
*1344 mult_75_G7_n123
*1345 mult_75_G7_n122
*1346 mult_75_G7_n121
*1347 mult_75_G7_n120
*1348 mult_75_G7_n119
*1349 mult_75_G7_n118
*1350 mult_75_G7_n117
*1351 mult_75_G7_n115
*1352 mult_75_G7_n114
*1353 mult_75_G7_n113
*1354 mult_75_G7_n111
*1355 mult_75_G7_n110
*1356 mult_75_G7_n109
*1357 mult_75_G7_n108
*1358 mult_75_G7_n106
*1359 mult_75_G7_n104
*1360 mult_75_G7_n103
*1361 mult_75_G7_n102
*1362 mult_75_G7_n101
*1363 mult_75_G7_n100
*1364 mult_75_G7_n99
*1365 mult_75_G7_n95
*1366 mult_75_G7_n94
*1367 mult_75_G7_n93
*1368 mult_75_G7_n79
*1369 mult_75_G7_n78
*1370 mult_75_G7_n77
*1371 mult_75_G7_n76
*1372 mult_75_G7_n75
*1373 mult_75_G7_n74
*1374 mult_75_G7_n73
*1375 mult_75_G7_n72
*1376 mult_75_G7_n71
*1377 mult_75_G7_n70
*1378 mult_75_G7_n69
*1379 mult_75_G7_n68
*1380 mult_75_G7_n67
*1381 mult_75_G7_n66
*1382 mult_75_G7_n65
*1383 mult_75_G7_n64
*1384 mult_75_G7_n63
*1385 mult_75_G7_n62
*1386 mult_75_G7_n61
*1387 mult_75_G7_n60
*1388 mult_75_G7_n59
*1389 mult_75_G7_n58
*1390 mult_75_G7_n57
*1391 mult_75_G7_n56
*1392 mult_75_G7_n55
*1393 mult_75_G7_n54
*1394 mult_75_G7_n53
*1395 mult_75_G7_n52
*1396 mult_75_G7_n51
*1397 mult_75_G7_n50
*1398 mult_75_G7_n49
*1399 mult_75_G7_n48
*1400 mult_75_G7_n46
*1401 mult_75_G7_n45
*1402 mult_75_G7_n44
*1403 mult_75_G7_n43
*1404 mult_75_G7_n42
*1405 mult_75_G7_n41
*1406 mult_75_G7_n40
*1407 mult_75_G7_n39
*1408 mult_75_G7_n38
*1409 mult_75_G7_n37
*1410 mult_75_G7_n36
*1411 mult_75_G7_n35
*1412 mult_75_G7_n34
*1413 mult_75_G7_n32
*1414 mult_75_G7_n31
*1415 mult_75_G7_n30
*1416 mult_75_G7_n29
*1417 mult_75_G7_n28
*1418 mult_75_G7_n27
*1419 mult_75_G7_n26
*1420 mult_75_G7_n25
*1421 mult_75_G7_n24
*1422 mult_75_G7_n22
*1423 mult_75_G7_n21
*1424 mult_75_G7_n20
*1425 mult_75_G7_n19
*1426 mult_75_G7_n18
*1427 mult_75_G7_n9
*1428 mult_75_G7_n8
*1429 mult_75_G7_n7
*1430 mult_75_G7_n6
*1431 mult_75_G7_n5
*1432 mult_75_G7_n4
*1433 mult_75_G7_n3
*1434 mult_75_G7_n2
*1435 add_8_root_add_0_root_add_76_G10_n2
*1436 mult_75_G9_n362
*1437 mult_75_G9_n361
*1438 mult_75_G9_n360
*1439 mult_75_G9_n359
*1440 mult_75_G9_n358
*1441 mult_75_G9_n357
*1442 mult_75_G9_n356
*1443 mult_75_G9_n355
*1444 mult_75_G9_n354
*1445 mult_75_G9_n353
*1446 mult_75_G9_n352
*1447 mult_75_G9_n351
*1448 mult_75_G9_n350
*1449 mult_75_G9_n349
*1450 mult_75_G9_n348
*1451 mult_75_G9_n347
*1452 mult_75_G9_n346
*1453 mult_75_G9_n345
*1454 mult_75_G9_n344
*1455 mult_75_G9_n343
*1456 mult_75_G9_n342
*1457 mult_75_G9_n341
*1458 mult_75_G9_n340
*1459 mult_75_G9_n339
*1460 mult_75_G9_n338
*1461 mult_75_G9_n337
*1462 mult_75_G9_n336
*1463 mult_75_G9_n335
*1464 mult_75_G9_n334
*1465 mult_75_G9_n333
*1466 mult_75_G9_n332
*1467 mult_75_G9_n331
*1468 mult_75_G9_n330
*1469 mult_75_G9_n329
*1470 mult_75_G9_n328
*1471 mult_75_G9_n327
*1472 mult_75_G9_n326
*1473 mult_75_G9_n325
*1474 mult_75_G9_n324
*1475 mult_75_G9_n323
*1476 mult_75_G9_n322
*1477 mult_75_G9_n321
*1478 mult_75_G9_n320
*1479 mult_75_G9_n319
*1480 mult_75_G9_n318
*1481 mult_75_G9_n317
*1482 mult_75_G9_n316
*1483 mult_75_G9_n315
*1484 mult_75_G9_n314
*1485 mult_75_G9_n313
*1486 mult_75_G9_n312
*1487 mult_75_G9_n311
*1488 mult_75_G9_n310
*1489 mult_75_G9_n309
*1490 mult_75_G9_n308
*1491 mult_75_G9_n307
*1492 mult_75_G9_n306
*1493 mult_75_G9_n305
*1494 mult_75_G9_n304
*1495 mult_75_G9_n303
*1496 mult_75_G9_n302
*1497 mult_75_G9_n301
*1498 mult_75_G9_n300
*1499 mult_75_G9_n299
*1500 mult_75_G9_n298
*1501 mult_75_G9_n297
*1502 mult_75_G9_n296
*1503 mult_75_G9_n295
*1504 mult_75_G9_n294
*1505 mult_75_G9_n293
*1506 mult_75_G9_n292
*1507 mult_75_G9_n291
*1508 mult_75_G9_n290
*1509 mult_75_G9_n289
*1510 mult_75_G9_n288
*1511 mult_75_G9_n287
*1512 mult_75_G9_n286
*1513 mult_75_G9_n285
*1514 mult_75_G9_n284
*1515 mult_75_G9_n283
*1516 mult_75_G9_n282
*1517 mult_75_G9_n281
*1518 mult_75_G9_n280
*1519 mult_75_G9_n279
*1520 mult_75_G9_n278
*1521 mult_75_G9_n277
*1522 mult_75_G9_n276
*1523 mult_75_G9_n275
*1524 mult_75_G9_n274
*1525 mult_75_G9_n273
*1526 mult_75_G9_n272
*1527 mult_75_G9_n271
*1528 mult_75_G9_n270
*1529 mult_75_G9_n269
*1530 mult_75_G9_n268
*1531 mult_75_G9_n140
*1532 mult_75_G9_n139
*1533 mult_75_G9_n138
*1534 mult_75_G9_n137
*1535 mult_75_G9_n136
*1536 mult_75_G9_n135
*1537 mult_75_G9_n132
*1538 mult_75_G9_n131
*1539 mult_75_G9_n130
*1540 mult_75_G9_n129
*1541 mult_75_G9_n128
*1542 mult_75_G9_n127
*1543 mult_75_G9_n126
*1544 mult_75_G9_n124
*1545 mult_75_G9_n123
*1546 mult_75_G9_n122
*1547 mult_75_G9_n121
*1548 mult_75_G9_n120
*1549 mult_75_G9_n119
*1550 mult_75_G9_n118
*1551 mult_75_G9_n117
*1552 mult_75_G9_n115
*1553 mult_75_G9_n114
*1554 mult_75_G9_n113
*1555 mult_75_G9_n111
*1556 mult_75_G9_n110
*1557 mult_75_G9_n109
*1558 mult_75_G9_n108
*1559 mult_75_G9_n106
*1560 mult_75_G9_n104
*1561 mult_75_G9_n103
*1562 mult_75_G9_n102
*1563 mult_75_G9_n101
*1564 mult_75_G9_n100
*1565 mult_75_G9_n99
*1566 mult_75_G9_n95
*1567 mult_75_G9_n94
*1568 mult_75_G9_n93
*1569 mult_75_G9_n79
*1570 mult_75_G9_n78
*1571 mult_75_G9_n77
*1572 mult_75_G9_n76
*1573 mult_75_G9_n75
*1574 mult_75_G9_n74
*1575 mult_75_G9_n73
*1576 mult_75_G9_n72
*1577 mult_75_G9_n71
*1578 mult_75_G9_n70
*1579 mult_75_G9_n69
*1580 mult_75_G9_n68